[General]
network = Network
sim-time-limit = 200s

Network.nodeTx.gen.packetByteSize = 12500
*.nodeTx.gen.generationInterval = exponential(${gi=0.1,0.2,0.5,1.0})

Network.nodeTx.transportTx.bufferSize = 2000000
Network.nodeTx.transportTx.cwndInit = 1.0
Network.queue.bufferSize = 200
Network.feedbackQueue.bufferSize = 200
Network.nodeRx.transportRx.bufferSize = 200
# feedbackDatarate debe ser >= queueToRxDatarate para evitar pérdidas en el feedback
Network.feedbackDatarate = 1Mbps

[Config Caso1]
description = "Cuello de botella en el receptor"
Network.txToQueueDatarate = 1Mbps
Network.queueToRxDatarate = 1Mbps
Network.nodeRx.rxToSinkDatarate = 0.5Mbps

[Config Caso2]
description = "Cuello de botella en la red"
Network.txToQueueDatarate = 1Mbps
Network.queueToRxDatarate = 0.5Mbps
Network.nodeRx.rxToSinkDatarate = 1Mbps

[Config Competicion]
description = "Escenario oficial para comparar control de transporte"
sim-time-limit = 200s
Network.nodeTx.gen.packetByteSize = 12500
Network.nodeTx.gen.generationInterval = exponential(0.1)
Network.nodeTx.transportTx.bufferSize = 2000000
Network.queue.bufferSize = 100
Network.feedbackQueue.bufferSize = 1000
Network.nodeRx.transportRx.bufferSize = 100
Network.txToQueueDatarate = 1Mbps
Network.queueToRxDatarate = 0.5Mbps
Network.nodeRx.rxToSinkDatarate = 0.5Mbps
Network.feedbackDatarate = 1Mbps
Network.linkDelay = 100us