[General]
network = Network
sim-time-limit = 200s

[Config Caso1]
description = "Sólo node[0] y node[2] transmiten a node[5]"
Network.node[0].app.interArrivalTime = exponential(1)
Network.node[0].app.packetByteSize = 125000
Network.node[0].app.destination = 5

Network.node[2].app.interArrivalTime = exponential(1)
Network.node[2].app.packetByteSize = 125000
Network.node[2].app.destination = 5

[Config Caso2]
description = "Todos los nodos transmiten a node[5]"
Network.node[{0,1,2,3,4,6,7}].app.interArrivalTime = exponential(${iat=0.5,1,2,3,5,7,8,10})
Network.node[{0,1,2,3,4,6,7}].app.packetByteSize = 125000
Network.node[{0,1,2,3,4,6,7}].app.destination = 5
